gv12.spc
assateague_wells.crd
assateague_concs_lst.crd
assateague_concs_in.smp
MT3D001.UCN
t
1.0e+20
d
1/1/1910
12:00:00
10
1.0e10
assateague_concs.smp
